*Heading
** Job name: ToiUu1000 Model name: Model-1

*Preprint, echo=NO, model=NO, history=NO, contact=NO
**
** PARTS
**
*Part, name=B
*Node
      1, 0.0599999987,  0.204999998
      2, 0.0579999983,  0.204999998
      3, 0.0560000017,  0.204999998
      4, 0.0540000014,  0.204999998
      5, 0.0520000011,  0.204999998
      6, 0.0500000007,  0.204999998
      7, 0.0599999987,  0.202990189
      8, 0.0579999983,  0.202990189
      9, 0.0560000017,  0.202990189
     10, 0.0540000014,  0.202990189
     11, 0.0520000011,  0.202990189
     12, 0.0500000007,  0.202990189
     13, 0.0599999987,  0.200980395
     14, 0.0579999983,  0.200980395
     15, 0.0560000017,  0.200980395
     16, 0.0540000014,  0.200980395
     17, 0.0520000011,  0.200980395
     18, 0.0500000007,  0.200980395
     19, 0.0599999987,  0.198970586
     20, 0.0579999983,  0.198970586
** ... 598 like lines cut
*Element, type=CAX4RT
  1,   1,   2,   8,   7
  2,   2,   3,   9,   8
  3,   3,   4,  10,   9
  4,   4,   5,  11,  10
  5,   5,   6,  12,  11
  6,   7,   8,  14,  13
  7,   8,   9,  15,  14
  8,   9,  10,  16,  15
  9,  10,  11,  17,  16
 10,  11,  12,  18,  17
 11,  13,  14,  20,  19
 12,  14,  15,  21,  20
 13,  15,  16,  22,  21
 14,  16,  17,  23,  22
 15,  17,  18,  24,  23
 16,  19,  20,  26,  25
 17,  20,  21,  27,  26
 18,  21,  22,  28,  27
 19,  22,  23,  29,  28
 20,  23,  24,  30,  29
** ... 490 like lines cut
*Nset, nset=Set-1, generate
   1,  618,    1
*Elset, elset=Set-1, generate
   1,  510,    1
** Section: B
*Solid Section, elset=Set-1, material=B1
,
*End Part
**  
*Part, name=Die
*Node
      1,        0.125, 0.0675455183
      2, 0.0599999987, 0.0675455183
      3, 0.0599999987,           0.
      4,        0.125,           0.
      5,  0.075000003, 0.0978134647
      6,        0.125, 0.0978134647
      7,        0.125,  0.180000007
      8,  0.075000003,  0.180000007
      9, 0.0739281997,  0.093813464
     10, 0.0610717982, 0.0715455189
     11,  0.120937496, 0.0675455183
     12,     0.116875, 0.0675455183
     13,  0.112812497, 0.0675455183
     14,  0.108750001, 0.0675455183
     15,  0.104687497, 0.0675455183
     16,  0.100625001, 0.0675455183
     17, 0.0965624973, 0.0675455183
     18, 0.0925000012, 0.0675455183
     19, 0.0884374976, 0.0675455183
     20, 0.0843750015, 0.0675455183
** ... 651 like lines cut
*Element, type=CAX4T
  1,   1,  11, 142,  70
  2,  11,  12, 143, 142
  3,  12,  13, 144, 143
  4,  13,  14, 145, 144
  5,  14,  15, 146, 145
  6,  15,  16, 147, 146
  7,  16,  17, 148, 147
  8,  17,  18, 149, 148
  9,  18,  19, 150, 149
 10,  19,  20, 151, 150
 11,  20,  21, 152, 151
 12,  21,  22, 153, 152
 13,  22,  23, 154, 153
 14,  23,  24, 155, 154
 15,  24,  25, 156, 155
 16,  25,   2,  26, 156
 17,  70, 142, 157,  69
 18, 142, 143, 158, 157
 19, 143, 144, 159, 158
 20, 144, 145, 160, 159
** ... 592 like lines cut
*Element, type=CAX3T
497, 657, 646, 647
*Node
    672,        0.125,           0.,           0.
*Nset, nset=Die-RefPt_, internal
672, 
*Nset, nset=Set-1, generate
   1,  671,    1
*Elset, elset=Set-1, generate
   1,  613,    1
** Section: Die
*Solid Section, elset=Set-1, material=SKD61
,
*End Part
**  
*Part, name=Punch
*Node
      1,           0., 0.0454448648
      2, 0.0649999976, 0.0454448648
      3, 0.0649999976,  0.123301268
      4,           0.,  0.123301268
      5,           0.,           0.
      6, 0.0353811979,           0.
      7, 0.0423093997, 0.00400000019
      8, 0.0639282018, 0.0414448641
      9, 0.00406249985, 0.0454448648
     10, 0.0081249997, 0.0454448648
     11, 0.0121874996, 0.0454448648
     12, 0.0162499994, 0.0454448648
     13, 0.0203124993, 0.0454448648
     14, 0.0243749991, 0.0454448648
     15, 0.0284375008, 0.0454448648
     16, 0.0324999988, 0.0454448648
     17, 0.0365624987, 0.0454448648
     18, 0.0406249985, 0.0454448648
     19, 0.0446874984, 0.0454448648
     20, 0.0487499982, 0.0454448648
** ... 513 like lines cut
*Element, type=CAX4T
  1,   1,   9, 104,  74
  2,   9,  10, 105, 104
  3,  10,  11, 106, 105
  4,  11,  12, 107, 106
  5,  12,  13, 108, 107
  6,  13,  14, 109, 108
  7,  14,  15, 110, 109
  8,  15,  16, 111, 110
  9,  16,  17, 112, 111
 10,  17,  18, 113, 112
 11,  18,  19, 114, 113
 12,  19,  20, 115, 114
 13,  20,  21, 116, 115
 14,  21,  22, 117, 116
 15,  22,  23, 118, 117
 16,  23,   2,  24, 118
 17,  74, 104, 119,  73
 18, 104, 105, 120, 119
 19, 105, 106, 121, 120
 20, 106, 107, 122, 121
** ... 466 like lines cut
*Element, type=CAX3T
305, 510, 503, 506
306, 506, 495, 496
307, 529, 483, 526
308, 498, 532, 500
*Node
    534, 0.0649999976,  0.123301268,           0.
*Nset, nset=Punch-RefPt_, internal
534, 
*Nset, nset=Set-1, generate
   1,  533,    1
*Elset, elset=Set-1, generate
   1,  490,    1
** Section: Pucnh
*Solid Section, elset=Set-1, material=SKD61
,
*End Part
**  
**
** ASSEMBLY
**
*Assembly, name=Assembly
**  
*Instance, name=B-1, part=B
*End Instance
**  
*Instance, name=Die-1, part=Die
*End Instance
**  
*Instance, name=P-1, part=Punch
          0., 0.210000279441629,           0.
*End Instance
**  
*Nset, nset=B, instance=B-1, generate
   1,  618,    1
*Elset, elset=B, instance=B-1, generate
   1,  510,    1
*Nset, nset=Die, instance=Die-1, generate
   1,  671,    1
*Elset, elset=Die, instance=Die-1, generate
   1,  613,    1
*Nset, nset=Punch, instance=P-1, generate
   1,  533,    1
*Elset, elset=Punch, instance=P-1, generate
   1,  490,    1
*Nset, nset=Set-6, instance=Die-1
 672,
*Nset, nset=Set-7, instance=Die-1
 672,
*Nset, nset=Set-8, instance=Die-1
 672,
*Nset, nset=Set-9, instance=B-1, generate
 613,  618,    1
*Elset, elset=Set-9, instance=B-1, generate
 506,  510,    1
*Nset, nset=Set-10, instance=P-1
 534,
*Nset, nset=Set-11, instance=Die-1, generate
   1,  671,    1
*Elset, elset=Set-11, instance=Die-1, generate
   1,  613,    1
*Nset, nset=_PickedSet23, internal, instance=P-1
 534,
*Nset, nset=_PickedSet29, internal, instance=Die-1
 672,
*Elset, elset=_B_Phai_S4, internal, instance=B-1, generate
   1,  506,    5
*Surface, type=ELEMENT, name=B_Phai
_B_Phai_S4, S4
*Elset, elset=_B_Trai_S2, internal, instance=B-1, generate
   5,  510,    5
*Surface, type=ELEMENT, name=B_Trai
_B_Trai_S2, S2
*Elset, elset=_B_Trai2_S1, internal, instance=B-1, generate
 1,  5,  1
*Elset, elset=_B_Trai2_S2, internal, instance=B-1, generate
   5,  510,    5
*Surface, type=ELEMENT, name=B_Trai2
_B_Trai2_S1, S1
_B_Trai2_S2, S2
*Elset, elset=_Die_B_S2, internal, instance=Die-1, generate
  16,  256,   16
*Elset, elset=_Die_B_S1, internal, instance=Die-1
 498, 500, 504, 557
*Elset, elset=_Die_B_S3, internal, instance=Die-1
 502, 514, 536, 538
*Elset, elset=_Die_B_S4, internal, instance=Die-1, generate
 257,  485,   12
*Surface, type=ELEMENT, name=Die_B
_Die_B_S2, S2
_Die_B_S1, S1
_Die_B_S4, S4
_Die_B_S3, S3
*Elset, elset=_Puch_B_S2, internal, instance=P-1, generate
  16,  304,   16
*Elset, elset=_Puch_B_S1, internal, instance=P-1
 309, 310, 325, 326, 334, 338, 339, 347, 349, 350, 353, 355, 368, 375, 387, 484
*Elset, elset=_Puch_B_S3, internal, instance=P-1
 317, 336, 340, 341, 342, 343, 356
*Surface, type=ELEMENT, name=Puch_B
_Puch_B_S2, S2
_Puch_B_S1, S1
_Puch_B_S3, S3
*Elset, elset=_Surf-6_S1, internal, instance=B-1, generate
 1,  5,  1
*Surface, type=ELEMENT, name=Surf-6
_Surf-6_S1, S1
*Elset, elset=_Surf-7_S3, internal, instance=B-1, generate
 506,  510,    1
*Surface, type=ELEMENT, name=Surf-7
_Surf-7_S3, S3
*Elset, elset=_Surf-8_S1, internal, instance=B-1, generate
 1,  5,  1
*Elset, elset=_Surf-8_S2, internal, instance=B-1, generate
   5,  510,    5
*Elset, elset=_Surf-8_S3, internal, instance=B-1, generate
 506,  510,    1
*Elset, elset=_Surf-8_S4, internal, instance=B-1, generate
   1,  506,    5
*Surface, type=ELEMENT, name=Surf-8
_Surf-8_S1, S1
_Surf-8_S2, S2
_Surf-8_S4, S4
_Surf-8_S3, S3
** Constraint: RigidDie
*Rigid Body, ref node=_PickedSet29, elset=Die, isothermal=YES
** Constraint: RigidPuch
*Rigid Body, ref node=_PickedSet23, elset=Punch, isothermal=YES
*End Assembly
*Amplitude, name=Amp-2
             0.,              0.,              1.,              1.
*Amplitude, name=Linera
             0.,              0.,              3.,              1.,              6.,              0.
** 
** MATERIALS
** 
*Material, name=B
*Conductivity
50., 25.
46.,300.
35.,750.
*Density
 7.85e-09,
*Elastic
 2.06e+08, 0.3
*Expansion
11.,
*Inelastic Heat Fraction
         0.9,
*Plastic
   286.1,     0.,    25.
 413.529, 0.0025,    25.
 435.366,  0.005,    25.
 449.837, 0.0075,    25.
 460.946,   0.01,    25.
 477.897,  0.015,    25.
  490.91,   0.02,    25.
  501.61,  0.025,    25.
 510.765,   0.03,    25.
 518.809,  0.035,    25.
 526.009,   0.04,    25.
 538.542,   0.05,    25.
 549.267,   0.06,    25.
 558.689,   0.07,    25.
 567.123,   0.08,    25.
 574.779,   0.09,    25.
 581.804,    0.1,    25.
 632.479,    0.2,    25.
 666.058,    0.3,    25.
 691.839,    0.4,    25.
** ... 110 like lines cut
*Specific Heat
 4.73e+08,
*Material, name=B1
*Conductivity
50., 25.
46.,300.
35.,750.
*Density
7850.,
*Elastic
 2.06e+11, 0.3
*Expansion
 1.1e-05,
*Inelastic Heat Fraction
         0.9,
*Plastic
   2.861e+08,     0.,    25.
 4.13529e+08, 0.0025,    25.
 4.35366e+08,  0.005,    25.
 4.49837e+08, 0.0075,    25.
 4.60946e+08,   0.01,    25.
 4.77897e+08,  0.015,    25.
  4.9091e+08,   0.02,    25.
  5.0161e+08,  0.025,    25.
 5.10765e+08,   0.03,    25.
 5.18809e+08,  0.035,    25.
 5.26009e+08,   0.04,    25.
 5.38542e+08,   0.05,    25.
 5.49267e+08,   0.06,    25.
 5.58689e+08,   0.07,    25.
 5.67123e+08,   0.08,    25.
 5.74779e+08,   0.09,    25.
 5.81804e+08,    0.1,    25.
 6.32479e+08,    0.2,    25.
 6.66058e+08,    0.3,    25.
 6.91839e+08,    0.4,    25.
** ... 110 like lines cut
*Specific Heat
473.,
*Material, name=Die
*Conductivity
204.,  0.
225.,300.
*Density
2700.,
*Elastic
 2.69e+11, 0.33
*Expansion
 8.42e-05,
*Plastic
    6e+07,    0.,   20.
    9e+07, 0.125,   20.
 1.13e+08,  0.25,   20.
 1.24e+08, 0.375,   20.
 1.33e+08,   0.5,   20.
 1.65e+08,    1.,   20.
 1.66e+08,    2.,   20.
    6e+07,    0.,   50.
    8e+07, 0.125,   50.
  9.7e+07,  0.25,   50.
  1.1e+08, 0.375,   50.
  1.2e+08,   0.5,   50.
  1.5e+08,    1.,   50.
 1.51e+08,    2.,   50.
    5e+07,    0.,  100.
  6.5e+07, 0.125,  100.
 8.15e+07,  0.25,  100.
  9.1e+07, 0.375,  100.
    1e+08,   0.5,  100.
 1.25e+08,    1.,  100.
** ... 7 like lines cut
*Specific Heat
880.,
*Material, name=Punch
*Conductivity
204.,  0.
225.,300.
*Density
2700.,
*Elastic
 2.8e+11, 0.34
*Expansion
 8.42e-05,
*Plastic
    6e+07,    0.,   20.
    9e+07, 0.125,   20.
 1.13e+08,  0.25,   20.
 1.24e+08, 0.375,   20.
 1.33e+08,   0.5,   20.
 1.65e+08,    1.,   20.
 1.66e+08,    2.,   20.
    6e+07,    0.,   50.
    8e+07, 0.125,   50.
  9.7e+07,  0.25,   50.
  1.1e+08, 0.375,   50.
  1.2e+08,   0.5,   50.
  1.5e+08,    1.,   50.
 1.51e+08,    2.,   50.
    5e+07,    0.,  100.
  6.5e+07, 0.125,  100.
 8.15e+07,  0.25,  100.
  9.1e+07, 0.375,  100.
    1e+08,   0.5,  100.
 1.25e+08,    1.,  100.
** ... 7 like lines cut
*Specific Heat
880.,
** SKD61
*Material, name=SKD61
*Conductivity
25., 25.
29.,400.
30.,600.
*Density
7800.,
*Elastic
 2.1e+11, 0.3
*Expansion
   0., 25.
 12.6,400.
 13.2,600.
*Specific Heat
 4.6e+08,
** 
** INTERACTION PROPERTIES
** 
*Surface Interaction, name=Contact1
1.,
*Friction
0.,
*Surface Behavior, pressure-overclosure=HARD
*Gap Conductance
 0.5,0.
 0.2,3.
  0.,6.
*Gap Conductance, pressure
 0.5, 0.1
 1.5,  5.
 2.3, 10.
 2.5, 15.
 2.7, 20.
 2.8, 25.
  3., 30.
 3.1, 35.
 3.3, 40.
*Gap Heat Generation
1., 0.5
*Surface Interaction, name=Contact2
1.,
*Friction, slip tolerance=0.005
 0.1,
*Surface Behavior, pressure-overclosure=HARD
*Gap Heat Generation
1., 0.5
** 
** BOUNDARY CONDITIONS
** 
** Name: B Type: Symmetry/Antisymmetry/Encastre
*Boundary
Set-9, YSYMM
** Name: Die Type: Symmetry/Antisymmetry/Encastre
*Boundary
Set-8, ENCASTRE
** Name: Nhet_punch Type: Temperature
*Boundary
Punch, 11, 11
** Name: Nhiet_B Type: Temperature
*Boundary
B, 11, 11
** Name: Nhiet_Die Type: Temperature
*Boundary
Set-11, 11, 11
** Name: Punch Type: Displacement/Rotation
*Boundary
Set-10, 1, 1
Set-10, 2, 2
Set-10, 6, 6
** 
** PREDEFINED FIELDS
** 
** Name: Predefined Field-1   Type: Temperature
*Initial Conditions, type=TEMPERATURE
Punch, 25.
** Name: Predefined Field-2   Type: Temperature
*Initial Conditions, type=TEMPERATURE
B, 1000.
** Name: Predefined Field-3   Type: Temperature
*Initial Conditions, type=TEMPERATURE
Die, 25.
** 
** INTERACTIONS
** 
** Interaction: Die
*Contact Pair, interaction=Contact2, type=SURFACE TO SURFACE
B_Phai, Die_B
** Interaction: Punch
*Contact Pair, interaction=Contact2, type=SURFACE TO SURFACE
B_Trai2, Puch_B
** ----------------------------------------------------------------
** 
** STEP: FormingStep
** 
*Step, name=FormingStep, nlgeom=YES, inc=1000000
*Coupled Temperature-displacement, creep=none, deltmx=1e+07, stabilize=2e-06, allsdtol=0.05, continue=NO
0.001, 3., 1e-08, 3.
** 
** BOUNDARY CONDITIONS
** 
** Name: Nhet_punch Type: Temperature
*Boundary
Punch, 11, 11, 25.
** Name: Nhiet_B Type: Temperature
*Boundary
B, 11, 11, 1000.
** Name: Nhiet_Die Type: Temperature
*Boundary
Set-11, 11, 11, 25.
** Name: Punch Type: Displacement/Rotation
*Boundary, amplitude=Linera
Set-10, 1, 1
Set-10, 2, 2, -0.155
Set-10, 6, 6
** 
** INTERACTIONS
** 
** Contact Controls for Interaction: Die
*Contact Controls, master=Die_B, slave=B_Phai, stabilize=1e-05, tangent fraction=0.001
** Contact Controls for Interaction: Punch
*Contact Controls, master=Puch_B, slave=B_Trai2, stabilize=1e-05, tangent fraction=0.001
** Interaction: Doi luu
*Sfilm
Surf-8, F, 25., 10.
** 
** OUTPUT REQUESTS
** 
*Restart, write, frequency=0
** 
** FIELD OUTPUT: F-Output-2
** 
*Output, field
*Node Output
NT, U
*Element Output, directions=YES
E, S, TEMP
*Contact Output
HTL, 
*Radiation Output
FTEMP, 
** 
** HISTORY OUTPUT: H-Output-2
** 
*Output, history
*Contact Output
CSTRESS, HFLA, HTL
*Radiation Output
FTEMP, 
*End Step
** ----------------------------------------------------------------
** 
** STEP: Remove
** 
*Step, name=Remove, nlgeom=YES, inc=1000000
*Coupled Temperature-displacement, creep=none, deltmx=1e+07, stabilize=2e-06, allsdtol=0.05, continue=NO
0.001, 3., 1e-10, 0.1
** 
** BOUNDARY CONDITIONS
** 
** Name: B Type: Symmetry/Antisymmetry/Encastre
*Boundary, op=NEW
Set-9, YSYMM
** Name: Die Type: Symmetry/Antisymmetry/Encastre
*Boundary, op=NEW
Set-8, ENCASTRE
** Name: Nhet_punch Type: Temperature
*Boundary, op=NEW
Punch, 11, 11, 25.
** Name: Nhiet_B Type: Temperature
*Boundary, op=NEW
B, 11, 11, 1000.
** Name: Nhiet_Die Type: Temperature
*Boundary, op=NEW
Set-11, 11, 11, 25.
** Name: Punch Type: Displacement/Rotation
*Boundary, op=NEW
Set-10, 1, 1
Set-10, 2, 2
Set-10, 6, 6
** 
** OUTPUT REQUESTS
** 
*Restart, write, frequency=0
** 
** FIELD OUTPUT: F-Output-2
** 
*Output, field
*Node Output
NT, U
*Element Output, directions=YES
E, S, TEMP
*Contact Output
HTL, 
*Radiation Output
FTEMP, 
** 
** HISTORY OUTPUT: H-Output-2
** 
*Output, history
*Contact Output
CSTRESS, HFLA, HTL
*Radiation Output
FTEMP, 
*End Step
